Version 4
SHEET 1 1196 680
WIRE 288 16 288 -64
WIRE 480 16 288 16
WIRE 624 16 480 16
WIRE 288 48 288 16
WIRE 288 64 288 48
WIRE 480 64 480 16
WIRE 160 112 32 112
WIRE 624 144 624 96
WIRE 480 192 480 128
WIRE 160 240 160 208
WIRE 624 240 624 224
WIRE 288 288 288 272
FLAG -48 112 0
FLAG 288 -144 0
FLAG 160 240 0
FLAG 288 288 0
FLAG 480 192 0
FLAG 624 240 0
SYMBOL current -48 112 R270
WINDOW 0 32 40 VTop 2
WINDOW 3 -44 -10 VBottom 2
WINDOW 123 0 0 Left 0
WINDOW 39 0 0 Left 0
SYMATTR InstName I1
SYMATTR Value PULSE(0 40u 1n 0.1n 0.1n 1n)
SYMBOL current 288 -144 R0
WINDOW 123 0 0 Left 0
WINDOW 39 0 0 Left 0
SYMATTR InstName I2
SYMATTR Value 100µ
SYMBOL res 608 0 R0
SYMATTR InstName R1
SYMATTR Value 1k
SYMBOL cap 464 64 R0
SYMATTR InstName C1
SYMATTR Value {cap}
SYMBOL ind 608 128 R0
SYMATTR InstName L1
SYMATTR Value 1µ
SYMBOL hTron_debug 288 160 R0
WINDOW 39 39 246 Bottom 2
SYMATTR SpiceLine Isw=114.8u Lind=1n R_in=100 width_h=500n width_c=600n thick_c=20n thick_h=30n thick_d=25n T_sub=3 sheetRes=470 Tc=8.4 Jc=50G
SYMATTR InstName X2
TEXT 440 -24 Left 2 !.step param cap 1p 50p 10p
TEXT -112 -8 Left 2 !.tran 0 100n 0 1p
