Version 4
SHEET 1 1196 832
WIRE 288 -448 288 -560
WIRE 288 -448 80 -448
WIRE 624 -416 416 -416
WIRE 80 -400 80 -448
WIRE 416 -384 416 -416
WIRE 80 -272 80 -320
WIRE 416 -240 416 -288
WIRE 624 -224 624 -416
WIRE 80 -160 80 -192
WIRE 624 -64 624 -144
WIRE 288 16 288 -224
WIRE 352 16 288 16
WIRE 480 16 432 16
WIRE 624 16 480 16
WIRE 480 64 480 16
WIRE 288 144 288 16
WIRE 480 192 480 128
WIRE 288 256 288 224
WIRE 160 320 32 320
WIRE 160 448 160 416
WIRE 288 496 288 480
FLAG -48 320 0
FLAG 288 -640 0
FLAG 160 448 0
FLAG 288 496 0
FLAG 480 192 0
FLAG 416 -240 0
FLAG 80 -160 0
SYMBOL hTron_debug 288 368 R0
WINDOW 39 57 203 Bottom 2
SYMATTR SpiceLine Isw=114.8u Lind=1n R_in=100 width_h=500n width_c=600n thick_c=20n thick_h=30n thick_d=25n T_sub=3 sheetRes=470 Tc=8.4 Jc=50G
SYMATTR InstName X1
SYMBOL current -48 320 R270
WINDOW 0 32 40 VTop 2
WINDOW 3 -44 -10 VBottom 2
WINDOW 123 0 0 Left 0
WINDOW 39 0 0 Left 0
SYMATTR InstName I1
SYMATTR Value PULSE(0 40u 1n 0.1n 0.1n 1n)
SYMBOL current 288 -640 R0
WINDOW 123 0 0 Left 0
WINDOW 39 0 0 Left 0
SYMATTR InstName I2
SYMATTR Value 100µ
SYMBOL res 608 -80 R0
SYMATTR InstName R1
SYMATTR Value 1k
SYMBOL cap 464 64 R0
SYMATTR InstName C1
SYMATTR Value 10p
SYMBOL ind 608 -128 M180
WINDOW 0 36 80 Left 2
WINDOW 3 36 40 Left 2
SYMATTR InstName L1
SYMATTR Value 1µ
SYMBOL hTron_debug 288 -336 M0
WINDOW 39 -36 -349 Bottom 2
SYMATTR SpiceLine Isw=200u Lind=1n R_in=100 width_h=500n width_c=600n thick_c=20n thick_h=30n thick_d=25n T_sub=3 sheetRes=470 Tc=8.4 Jc=50G
SYMATTR InstName X2
SYMBOL res 96 -304 R180
WINDOW 0 36 76 Left 2
WINDOW 3 36 40 Left 2
SYMATTR InstName R2
SYMATTR Value 1
SYMBOL ind 64 -288 R0
SYMATTR InstName L2
SYMATTR Value 50n
SYMBOL ind 272 128 R0
SYMATTR InstName L3
SYMATTR Value 1n
SYMBOL res 448 0 R90
WINDOW 0 0 56 VBottom 2
WINDOW 3 32 56 VTop 2
SYMATTR InstName R3
SYMATTR Value 10
TEXT -120 -72 Left 2 !.tran 0 30n 0 1p
