Version 4
SHEET 1 880 680
WIRE 80 -16 -272 -16
WIRE -272 64 -272 -16
WIRE -272 224 -272 144
WIRE -400 304 -576 304
WIRE -320 304 -400 304
WIRE -272 304 -272 272
WIRE -576 384 -576 304
WIRE -272 448 -272 320
WIRE -272 480 -272 448
FLAG 80 64 0
FLAG -576 464 0
FLAG -272 224 ds
FLAG -400 304 Vg
FLAG -272 544 0
FLAG -272 448 led
SYMBOL voltage 80 -32 R0
WINDOW 123 0 0 Left 0
WINDOW 39 0 0 Left 0
SYMATTR InstName V2
SYMATTR Value PWL(0 0 1 3)
SYMBOL voltage -576 368 R0
WINDOW 123 0 0 Left 0
WINDOW 39 0 0 Left 0
SYMATTR InstName V3
SYMATTR Value {V2}
SYMBOL res -288 48 R0
SYMATTR InstName R2
SYMATTR Value 100
SYMBOL nmos4 -320 224 R0
SYMATTR InstName M1
SYMATTR Value soen_nmos
SYMATTR Value2 l=1u w=20u
SYMBOL diode -288 480 R0
SYMATTR InstName D1
SYMATTR Value soen_led
TEXT -128 424 Left 2 !.tran 1
TEXT -808 -80 Left 2 !.lib C:\\Users\\jeffr\\Documents\\a4\\git_repos\\olmec\\calculations\\model.lib
TEXT -888 360 Left 2 !.step param V2 2.0 3.0 0.25
