Version 4
SHEET 1 1408 680
WIRE -448 -592 -448 -656
WIRE -448 -480 -448 -512
WIRE 1264 -480 -448 -480
WIRE -448 -448 -448 -480
WIRE -448 -304 -448 -368
WIRE -448 -304 -608 -304
WIRE 224 -256 -64 -256
WIRE 480 -256 480 -304
WIRE 480 -256 224 -256
WIRE 688 -256 480 -256
WIRE 976 -256 688 -256
WIRE -448 -240 -448 -304
WIRE -1008 -208 -1008 -256
WIRE -1008 -176 -1008 -208
WIRE -64 -144 -64 -176
WIRE 112 -144 -64 -144
WIRE 224 -144 224 -176
WIRE 304 -144 224 -144
WIRE 480 -144 384 -144
WIRE 576 -144 480 -144
WIRE 688 -144 688 -176
WIRE 864 -144 688 -144
WIRE 976 -144 976 -176
WIRE 1152 -144 976 -144
WIRE 1264 -144 1264 -480
WIRE 480 -128 480 -144
WIRE -448 -64 -448 -160
WIRE -192 -64 -448 -64
WIRE -112 -64 -192 -64
WIRE -64 -64 -64 -96
WIRE 112 -64 112 -144
WIRE 144 -64 112 -64
WIRE 176 -64 144 -64
WIRE 576 -64 576 -144
WIRE 640 -64 576 -64
WIRE 864 -64 864 -144
WIRE 928 -64 864 -64
WIRE 976 -64 976 -96
WIRE 1152 -64 1152 -144
WIRE 1216 -64 1152 -64
WIRE 1264 -64 1264 -96
WIRE -608 -48 -608 -304
WIRE -448 -48 -448 -64
WIRE -192 -48 -192 -64
WIRE 480 -16 480 -64
WIRE -64 48 -64 -48
WIRE 224 48 224 -48
WIRE 224 48 -64 48
WIRE 480 48 224 48
WIRE 688 48 688 -48
WIRE 688 48 480 48
WIRE 976 48 976 -48
WIRE 976 48 688 48
WIRE 480 80 480 48
WIRE -448 112 -448 32
WIRE -192 112 -192 32
WIRE -608 128 -608 32
WIRE -448 240 -448 192
WIRE -192 240 -192 176
WIRE -192 240 -448 240
WIRE 1264 240 1264 -48
WIRE 1264 240 -192 240
WIRE -448 256 -448 240
FLAG -448 256 0
FLAG -128 -192 Vg_m1
FLAG -1008 -336 0
FLAG -1008 -96 0
FLAG -1008 -208 V_h
IOPIN -1008 -208 Out
FLAG 480 -384 0
FLAG -192 112 led
FLAG 144 -64 Vg_m2
FLAG 480 -16 0
FLAG 480 80 0
FLAG -448 -736 0
FLAG -608 192 0
SYMBOL res -464 -64 R0
SYMATTR InstName R1
SYMATTR Value R=V(V_h)+1e-6
SYMBOL res -176 48 R180
WINDOW 0 36 76 Left 2
WINDOW 3 36 40 Left 2
SYMATTR InstName R2
SYMATTR Value 10k
SYMBOL ind -464 96 R0
SYMATTR InstName L1
SYMATTR Value 10n
SYMBOL voltage -1008 -192 R0
WINDOW 123 0 0 Left 0
WINDOW 39 0 0 Left 0
SYMATTR InstName V1
SYMATTR Value PWL(0 0 4.9n 0 5n 10k)
SYMBOL res -1024 -352 R0
SYMATTR InstName R3
SYMATTR Value 1
SYMBOL voltage 480 -288 R180
WINDOW 0 -32 56 VBottom 2
WINDOW 3 32 56 VTop 2
WINDOW 123 0 0 Left 0
WINDOW 39 0 0 Left 0
SYMATTR InstName V2
SYMATTR Value 2
SYMBOL nmos4 -112 -144 R0
SYMATTR InstName M1
SYMATTR Value soen_nmos
SYMATTR Value2 l=1u w=10u
SYMBOL diode -208 112 R0
SYMATTR InstName D1
SYMATTR Value soen_led
SYMBOL res -464 -608 R0
SYMATTR InstName R4
SYMATTR Value 500k
SYMBOL cap 496 -64 R180
WINDOW 0 24 56 Left 2
WINDOW 3 24 8 Left 2
SYMATTR InstName C1
SYMATTR Value 1p
SYMBOL nmos4 640 -144 R0
SYMATTR InstName M3
SYMATTR Value soen_nmos
SYMATTR Value2 l=1u w=10u
SYMBOL cap -624 128 R0
SYMATTR InstName C2
SYMATTR Value 10p
SYMBOL res -624 -64 R0
SYMATTR InstName R7
SYMATTR Value 1k
SYMBOL res -80 -272 R0
SYMATTR InstName R8
SYMATTR Value 300k
SYMBOL nmos4 176 -144 R0
SYMATTR InstName M2
SYMATTR Value soen_nmos
SYMATTR Value2 l=1u w=10u
SYMBOL res 400 -160 R90
WINDOW 0 0 56 VBottom 2
WINDOW 3 32 56 VTop 2
SYMATTR InstName R6
SYMATTR Value 100
SYMBOL nmos4 928 -144 R0
SYMATTR InstName M4
SYMATTR Value soen_nmos
SYMATTR Value2 l=1u w=10u
SYMBOL nmos4 1216 -144 R0
SYMATTR InstName M5
SYMATTR Value soen_nmos
SYMATTR Value2 l=1u w=10u
SYMBOL res 208 -272 R0
SYMATTR InstName R5
SYMATTR Value 300k
SYMBOL res 672 -272 R0
SYMATTR InstName R9
SYMATTR Value 300k
SYMBOL res 960 -272 R0
SYMATTR InstName R10
SYMATTR Value 300k
SYMBOL voltage -448 -640 R180
WINDOW 0 -32 56 VBottom 2
WINDOW 3 32 56 VTop 2
WINDOW 123 0 0 Left 0
WINDOW 39 0 0 Left 0
SYMATTR InstName V3
SYMATTR Value 4
SYMBOL res -464 -464 R0
SYMATTR InstName R11
SYMATTR Value 500k
SYMBOL ind -464 -256 R0
SYMATTR InstName L2
SYMATTR Value 100n
TEXT -272 -640 Left 2 !.lib C:\\Users\\jeffr\\Documents\\a4\\calculations\\spice_models\\model.lib
TEXT -992 120 Left 2 !.tran 0 200n 0
