Version 4
SHEET 1 980 1824
WIRE 800 64 784 64
WIRE 896 64 864 64
WIRE -432 80 -592 80
WIRE -48 96 -288 96
WIRE -432 112 -544 112
WIRE 784 160 784 64
WIRE 784 160 672 160
WIRE 800 160 784 160
WIRE 896 160 896 64
WIRE 896 160 880 160
WIRE -544 176 -544 112
WIRE 736 240 736 80
WIRE -48 256 -48 96
WIRE 128 256 -48 256
WIRE 336 256 208 256
WIRE 672 256 672 160
WIRE 672 256 336 256
WIRE 704 256 672 256
WIRE 896 272 896 160
WIRE 896 272 768 272
WIRE 976 272 896 272
WIRE 704 288 560 288
WIRE 560 352 560 288
WIRE 736 352 736 304
WIRE 128 400 -48 400
WIRE 336 400 336 256
WIRE 336 400 208 400
WIRE -432 432 -592 432
WIRE -48 448 -48 400
WIRE -48 448 -288 448
WIRE -432 464 -528 464
WIRE -528 528 -528 464
WIRE 128 560 -48 560
WIRE 336 560 336 400
WIRE 336 560 208 560
WIRE -432 768 -576 768
WIRE -48 784 -48 560
WIRE -48 784 -288 784
WIRE -432 800 -496 800
WIRE -496 880 -496 800
FLAG 736 0 0
FLAG 736 432 0
FLAG 560 432 0
FLAG -496 960 0
FLAG -528 608 0
FLAG -544 256 0
FLAG -672 80 0
FLAG -672 432 0
FLAG -656 768 0
SYMBOL voltage 736 96 R180
WINDOW 0 24 96 Left 2
WINDOW 3 24 16 Left 2
SYMATTR InstName V1
SYMATTR Value 5
SYMBOL res 224 544 R90
WINDOW 0 0 56 VBottom 2
WINDOW 3 32 56 VTop 2
SYMATTR InstName R1
SYMATTR Value 10k
SYMBOL res 224 384 R90
WINDOW 0 0 56 VBottom 2
WINDOW 3 32 56 VTop 2
SYMATTR InstName R2
SYMATTR Value 10k
SYMBOL res 224 240 R90
WINDOW 0 0 56 VBottom 2
WINDOW 3 32 56 VTop 2
SYMATTR InstName R3
SYMATTR Value 10k
SYMBOL res 896 144 R90
WINDOW 0 0 56 VBottom 2
WINDOW 3 32 56 VTop 2
SYMATTR InstName R4
SYMATTR Value 10k
SYMBOL Opamps/AD795 736 208 R0
SYMATTR InstName U1
SYMBOL voltage 736 336 R0
SYMATTR InstName V2
SYMATTR Value -5
SYMBOL voltage 560 336 R0
SYMATTR InstName V3
SYMATTR Value -21.9m
SYMBOL cap 864 48 R90
WINDOW 0 0 32 VBottom 2
WINDOW 3 32 32 VTop 2
SYMATTR InstName C1
SYMATTR Value 70n
SYMBOL voltage -544 160 R0
SYMATTR InstName V4
SYMATTR Value -5
SYMBOL voltage -528 512 R0
SYMATTR InstName V5
SYMATTR Value -2
SYMBOL voltage -496 864 R0
SYMATTR InstName V6
SYMATTR Value -4
SYMBOL current -672 80 R270
WINDOW 0 32 40 VTop 2
WINDOW 3 -32 40 VBottom 2
SYMATTR InstName I1
SYMATTR Value PULSE(0 10u 2m 0 0 .25m)
SYMBOL current -672 432 R270
WINDOW 0 32 40 VTop 2
WINDOW 3 -32 40 VBottom 2
SYMATTR InstName I2
SYMATTR Value PULSE(0 10u 4m 0 0 .25m)
SYMBOL current -656 768 R270
WINDOW 0 32 40 VTop 2
WINDOW 3 -32 40 VBottom 2
SYMATTR InstName I3
SYMATTR Value PULSE(0 10u 2.75m 0 0 .25m)
SYMBOL Synapse_v2 -368 96 R0
SYMATTR InstName X1
SYMBOL Synapse_v2 -368 448 R0
SYMATTR InstName X2
SYMBOL Synapse_v2 -368 784 R0
SYMATTR InstName X3
TEXT 632 672 Left 2 !.tran 7m
