Version 4
SHEET 1 880 680
WIRE -272 16 -576 16
WIRE 0 16 -272 16
WIRE 0 32 0 16
WIRE -272 64 -272 16
WIRE -272 192 -272 144
WIRE -208 192 -272 192
WIRE -128 192 -208 192
WIRE -48 192 -128 192
WIRE 0 208 0 112
WIRE -272 224 -272 192
WIRE 0 240 0 208
WIRE -400 304 -576 304
WIRE -320 304 -400 304
WIRE -272 304 -272 272
WIRE -48 320 -48 192
WIRE 0 320 0 288
WIRE -128 336 -128 256
WIRE -576 384 -576 304
WIRE -272 480 -272 320
WIRE -576 496 -576 464
FLAG -576 96 0
FLAG -576 496 0
FLAG -272 224 ds
FLAG -400 304 Vg
FLAG -272 480 0
FLAG -208 192 rc
FLAG 0 208 out
FLAG 0 336 0
FLAG -128 336 0
SYMBOL voltage -576 0 R0
WINDOW 123 0 0 Left 0
WINDOW 39 0 0 Left 0
SYMATTR InstName V2
SYMATTR Value 3
SYMBOL voltage -576 368 R0
WINDOW 123 0 0 Left 0
WINDOW 39 0 0 Left 0
WINDOW 3 -438 -97 Left 2
SYMATTR Value PWL(0ns 0V 9.9ns 0 10ns 3V 49.9ns 3V 50ns 0V)
SYMATTR InstName V3
SYMBOL nmos4 -320 224 R0
SYMATTR InstName M1
SYMATTR Value soen_nmos
SYMATTR Value2 l=1u w=10u
SYMBOL cap -144 192 R0
WINDOW 0 -38 19 Left 2
WINDOW 3 -42 48 Left 2
SYMATTR InstName C1
SYMATTR Value 2.5p
SYMBOL res -256 160 R180
WINDOW 0 36 76 Left 2
WINDOW 3 36 40 Left 2
SYMATTR InstName R2
SYMATTR Value 3e5
SYMBOL nmos4 -48 240 R0
SYMATTR InstName M2
SYMATTR Value soen_nmos
SYMATTR Value2 l=1u w=10u
SYMBOL res 16 128 R180
WINDOW 0 36 76 Left 2
WINDOW 3 36 40 Left 2
SYMATTR InstName R1
SYMATTR Value 3e5
TEXT -768 576 Left 2 !.tran 100n
TEXT -768 616 Left 2 !.lib C:\\Users\\jeffr\\Documents\\a4\\git_repos\\olmec\\calculations\\model.lib
