Version 4
SHEET 1 2744 1332
WIRE 112 -400 -96 -400
WIRE 384 -400 112 -400
WIRE 384 -368 384 -400
WIRE 112 -320 112 -400
WIRE 384 -272 384 -288
WIRE 384 -256 384 -272
WIRE 112 -176 112 -240
WIRE 336 -176 112 -176
WIRE 384 -176 384 -208
WIRE 112 -160 112 -176
WIRE 384 -112 384 -160
WIRE -16 -80 -192 -80
WIRE 64 -80 -16 -80
WIRE 112 -80 112 -112
WIRE -192 0 -192 -80
WIRE 112 0 112 -64
FLAG -96 -320 0
FLAG -192 80 0
FLAG 112 0 0
FLAG 112 -160 ds
FLAG -16 -80 Vg
FLAG 384 -112 0
FLAG 384 -272 out
SYMBOL voltage -96 -416 R0
WINDOW 123 0 0 Left 0
WINDOW 39 0 0 Left 0
SYMATTR InstName V1
SYMATTR Value 2
SYMBOL voltage -192 -16 R0
WINDOW 123 0 0 Left 0
WINDOW 39 0 0 Left 0
SYMATTR InstName V2
SYMATTR Value PWL(0 0 9n 0 10n 1.3)
SYMBOL res 96 -336 R0
SYMATTR InstName R1
SYMATTR Value 3e5
SYMBOL nmos4 64 -160 R0
SYMATTR InstName M2
SYMATTR Value soen_nmos
SYMATTR Value2 l=1u w=10u
SYMBOL nmos4 336 -256 R0
SYMATTR InstName M1
SYMATTR Value soen_nmos
SYMATTR Value2 l=1u w=10u
SYMBOL res 368 -384 R0
SYMATTR InstName R2
SYMATTR Value 3e5
TEXT 256 40 Left 2 !.tran 20n
TEXT -424 -464 Left 2 !.lib C:\\Users\\jeffr\\Documents\\a4\\git_repos\\olmec\\calculations\\model.lib
